Circuit: * C:\Users\moge3\Downloads\elec\LTspice\ac-dc-rectifier-circuit.asc

Direct Newton iteration for .op point succeeded.

Date: Wed Nov 19 05:03:55 2025
Total elapsed time: 0.091 seconds.

tnom = 27
temp = 27
method = modified trap
totiter = 3136
traniter = 3122
tranpoints = 1248
accept = 1200
rejected = 48
matrix size = 12
fillins = 9
solver = Alternate
Avg thread counts: 3.6/4.6/4.1/2.3
Matrix Compiler1: 2.05 KB object code size  0.6/0.4/[0.3]
Matrix Compiler2: 1.41 KB object code size  0.2/0.3/[0.2]

