Circuit: * C:\Users\moge3\Downloads\elec\LTspice\ac-dc-rectifier-circuit.asc

Direct Newton iteration for .op point succeeded.

Date: Wed Nov 19 05:26:03 2025
Total elapsed time: 0.118 seconds.

tnom = 27
temp = 27
method = modified trap
totiter = 3098
traniter = 3084
tranpoints = 1250
accept = 1199
rejected = 51
matrix size = 12
fillins = 9
solver = Alternate
Avg thread counts: 3.6/4.2/4.0/2.3
Matrix Compiler1: 2.05 KB object code size  0.5/0.3/[0.3]
Matrix Compiler2: off  [0.2]/0.2/0.3

